@<TRIPOS>MOLECULE
CHL
   74    77     1     0     0
SMALL
resp


@<TRIPOS>ATOM
      1 C1          4.6640   -1.4940   -0.7270 CT        1 CHL     -0.086971
      2 O1          8.2430   -0.2780   -0.6760 OH        1 CHL     -0.733793
      3 C2          6.1800   -1.5800   -0.5490 CT        1 CHL     -0.298698
      4 C3          6.8330   -0.2250   -0.7900 CT        1 CHL      0.486278
      5 C4          6.2280    0.8160    0.1540 CT        1 CHL     -0.411707
      6 C5          4.7200    0.8740    0.0560 CM        1 CHL     -0.099532
      7 C6          4.1020    2.0390   -0.1520 CM        1 CHL     -0.265660
      8 C7          2.6150    2.2170   -0.2290 CT        1 CHL      0.008172
      9 C8          1.8530    0.9970    0.2880 CT        1 CHL      0.014561
     10 C9          2.4960   -0.2920   -0.2620 CT        1 CHL     -0.135975
     11 C10         3.9740   -0.4540    0.1920 CT        1 CHL      0.341451
     12 C11         1.6370   -1.5360    0.0290 CT        1 CHL     -0.135952
     13 C12         0.1600   -1.3830   -0.3650 CT        1 CHL     -0.145724
     14 C13        -0.4680   -0.1500    0.2990 CT        1 CHL      0.416808
     15 C14         0.3890    1.0610   -0.1300 CT        1 CHL      0.006077
     16 C15        -0.4320    2.2780    0.2960 CT        1 CHL     -0.097994
     17 C16        -1.8950    1.8240    0.0790 CT        1 CHL     -0.096187
     18 C17        -1.8600    0.2970   -0.2330 CT        1 CHL     -0.068732
     19 C18        -0.5210   -0.3100    1.8260 CT        1 CHL     -0.511381
     20 C19         4.0630   -0.9270    1.6580 CT        1 CHL     -0.194169
     21 C20        -3.1210   -0.4270    0.2710 CT        1 CHL      0.200289
     22 C21        -3.0700   -1.9390    0.0470 CT        1 CHL     -0.413287
     23 C22        -4.3670    0.1830   -0.3940 CT        1 CHL     -0.135426
     24 C23        -5.7050   -0.3830    0.0860 CT        1 CHL      0.100638
     25 C24        -6.8950    0.4160   -0.4440 CT        1 CHL     -0.309454
     26 C25        -8.2600   -0.0300    0.0920 CT        1 CHL      0.427713
     27 C26        -8.5740   -1.4830   -0.2680 CT        1 CHL     -0.434230
     28 C27        -9.3600    0.8940   -0.4320 CT        1 CHL     -0.434230
     29 H1          4.7100    2.9360   -0.2690 HA        1 CHL      0.147485
     30 H2         -9.4250    0.8270   -1.5250 HC        1 CHL      0.097987
     31 H3          4.2190   -2.4810   -0.5590 HC        1 CHL      0.033649
     32 H4          8.4470   -0.5600    0.2280 HO        1 CHL      0.416325
     33 H5          6.6060   -2.3170   -1.2390 HC        1 CHL      0.082748
     34 H6          6.6410    0.0830   -1.8250 H1        1 CHL      0.053646
     35 H7          6.6630    1.7980   -0.0540 HC        1 CHL      0.131777
     36 H8          2.3210    2.4160   -1.2720 HC        1 CHL      0.026367
     37 H9          1.9190    0.9980    1.3860 HC        1 CHL      0.045211
     38 H10         2.5210   -0.1630   -1.3580 HC        1 CHL      0.044739
     39 H11         1.6880   -1.7790    1.0960 HC        1 CHL      0.057844
     40 H12        -0.3670   -2.3050   -0.1010 HC        1 CHL      0.022958
     41 H13         0.3840    1.0430   -1.2350 HC        1 CHL      0.012134
     42 H14        -0.1810    3.1740   -0.2800 HC        1 CHL      0.023716
     43 H15        -2.3710    2.3780   -0.7350 HC        1 CHL      0.027295
     44 H16        -1.8300    0.1680   -1.3280 HC        1 CHL     -0.003020
     45 H17        -1.0150    0.5440    2.3040 HC        1 CHL      0.110895
     46 H18         3.7650   -1.9760    1.7570 HC        1 CHL      0.038387
     47 H19        -3.2070   -0.2430    1.3540 HC        1 CHL     -0.008297
     48 H20        -2.9100   -2.1680   -1.0140 HC        1 CHL      0.095482
     49 H21        -4.2880    0.0510   -1.4850 HC        1 CHL      0.036648
     50 H22        -5.7280   -0.3820    1.1860 HC        1 CHL     -0.001559
     51 H23        -6.9100    0.3580   -1.5440 HC        1 CHL      0.069517
     52 H24        -8.2330    0.0550    1.1890 HC        1 CHL     -0.045242
     53 H25        -7.8670   -2.1820    0.1880 HC        1 CHL      0.097987
     54 H26        -9.1600    1.9390   -0.1720 HC        1 CHL      0.097987
     55 H27         4.4530   -1.2250   -1.7720 HC        1 CHL      0.033649
     56 H28         6.4290   -1.9160    0.4700 HC        1 CHL      0.082748
     57 H29         6.5320    0.5440    1.1780 HC        1 CHL      0.131777
     58 H30         2.3200    3.1100    0.3370 HC        1 CHL      0.026367
     59 H31         2.0520   -2.4020   -0.4990 HC        1 CHL      0.057844
     60 H32         0.0780   -1.2720   -1.4560 HC        1 CHL      0.022958
     61 H33        -0.2420    2.5130    1.3510 HC        1 CHL      0.023716
     62 H34        -2.5000    2.0110    0.9750 HC        1 CHL      0.027295
     63 H35         0.4730   -0.4040    2.2720 HC        1 CHL      0.110895
     64 H36         3.4190   -0.3230    2.3050 HC        1 CHL      0.038387
     65 H37        -4.0020   -2.4180    0.3580 HC        1 CHL      0.095482
     66 H38        -4.3730    1.2660   -0.2180 HC        1 CHL      0.036648
     67 H39        -5.8030   -1.4280   -0.2270 HC        1 CHL     -0.001559
     68 H40        -6.7500    1.4770   -0.1970 HC        1 CHL      0.069517
     69 H41        -8.5350   -1.6220   -1.3550 HC        1 CHL      0.097987
     70 H42       -10.3380    0.6230   -0.0220 HC        1 CHL      0.097987
     71 H43        -1.0870   -1.2070    2.0990 HC        1 CHL      0.110895
     72 H44         5.0810   -0.8420    2.0460 HC        1 CHL      0.038387
     73 H45        -2.2650   -2.4080    0.6170 HC        1 CHL      0.095482
     74 H46        -9.5790   -1.7600    0.0680 HC        1 CHL      0.097987
@<TRIPOS>BOND
     1    1    3 1   
     2    1   11 1   
     3    1   31 1   
     4    1   55 1   
     5    2    4 1   
     6    2   32 1   
     7    3    4 1   
     8    3   33 1   
     9    3   56 1   
    10    4    5 1   
    11    4   34 1   
    12    5    6 1   
    13    5   35 1   
    14    5   57 1   
    15    6    7 2   
    16    6   11 1   
    17    7    8 1   
    18    7   29 1   
    19    8    9 1   
    20    8   36 1   
    21    8   58 1   
    22    9   10 1   
    23    9   15 1   
    24    9   37 1   
    25   10   11 1   
    26   10   12 1   
    27   10   38 1   
    28   11   20 1   
    29   12   13 1   
    30   12   39 1   
    31   12   59 1   
    32   13   14 1   
    33   13   40 1   
    34   13   60 1   
    35   14   15 1   
    36   14   18 1   
    37   14   19 1   
    38   15   16 1   
    39   15   41 1   
    40   16   17 1   
    41   16   42 1   
    42   16   61 1   
    43   17   18 1   
    44   17   43 1   
    45   17   62 1   
    46   18   21 1   
    47   18   44 1   
    48   19   45 1   
    49   19   63 1   
    50   19   71 1   
    51   20   46 1   
    52   20   64 1   
    53   20   72 1   
    54   21   22 1   
    55   21   23 1   
    56   21   47 1   
    57   22   48 1   
    58   22   65 1   
    59   22   73 1   
    60   23   24 1   
    61   23   49 1   
    62   23   66 1   
    63   24   25 1   
    64   24   50 1   
    65   24   67 1   
    66   25   26 1   
    67   25   51 1   
    68   25   68 1   
    69   26   27 1   
    70   26   28 1   
    71   26   52 1   
    72   27   53 1   
    73   27   69 1   
    74   27   74 1   
    75   28   30 1   
    76   28   54 1   
    77   28   70 1   
@<TRIPOS>SUBSTRUCTURE
     1 CHL         1 TEMP              0 ****  ****    0 ROOT
