@<TRIPOS>MOLECULE
PIP
  149   149     1     0     0
SMALL
resp


@<TRIPOS>ATOM
      1 P1          6.3410    0.2520   -0.1230 P         1 PIP      1.163462
      2 O1          7.7020   -0.0860    0.7230 OS        1 PIP     -0.457821
      3 O2          6.4720    1.5750   -0.8210 O2        1 PIP     -0.826744
      4 O3          5.9070   -0.9650   -0.8870 O2        1 PIP     -0.826744
      5 P2         13.1080    1.6270   -0.8490 P         1 PIP      1.350574
      6 O4         13.6280    0.8830   -2.0730 O2        1 PIP     -0.963618
      7 O5         14.1650    2.2440    0.0540 O2        1 PIP     -0.963618
      8 O6         11.9150    2.5580   -1.1630 O2        1 PIP     -0.963618
      9 O7         12.4290    0.4560    0.1610 OS        1 PIP     -0.448092
     10 C1         11.3040   -0.2530   -0.3200 CT        1 PIP      0.208385
     11 C2         10.0510    0.2670    0.3890 CT        1 PIP     -0.056097
     12 O8          9.8150    1.6250    0.0960 OH        1 PIP     -0.662866
     13 C3          8.8320   -0.5530   -0.0190 CT        1 PIP      0.495935
     14 C4          9.0250   -2.0410    0.2300 CT        1 PIP      0.020783
     15 O9          9.1430   -2.2720    1.6260 OH        1 PIP     -0.727822
     16 C5         10.2830   -2.5650   -0.4630 CT        1 PIP      0.180937
     17 O10        10.4280   -3.9160   -0.0770 OH        1 PIP     -0.727396
     18 C6         11.5170   -1.7440   -0.0800 CT        1 PIP      0.155124
     19 O11        12.6190   -2.1840   -0.8520 OS        1 PIP     -0.459774
     20 P3         13.7670   -3.1540   -0.0850 P         1 PIP      1.431052
     21 O12        12.9270   -4.3370    0.4540 O2        1 PIP     -0.982722
     22 O13        14.6940   -3.5180   -1.2330 O2        1 PIP     -0.982722
     23 O14        14.3770   -2.3030    1.0210 O2        1 PIP     -0.982722
     24 H1         11.1850   -0.0950   -1.4040 H1        1 PIP      0.045636
     25 H2         10.2010    0.1340    1.4730 H1        1 PIP      0.047031
     26 H3         10.6310    2.0060   -0.3540 HO        1 PIP      0.409919
     27 H4          8.6700   -0.4030   -1.0970 H1        1 PIP      0.003933
     28 H5          8.1490   -2.5770   -0.1660 H1        1 PIP      0.044880
     29 H6          9.5720   -3.1470    1.6770 HO        1 PIP      0.434391
     30 H7         10.1530   -2.4800   -1.5550 H1        1 PIP     -0.047736
     31 H8         11.4110   -4.1060    0.0870 HO        1 PIP      0.407301
     32 H9         11.7150   -1.8900    0.9920 H1        1 PIP      0.078883
     33 O15         5.3570    0.4100    1.1820 OS        1 PIP     -0.517806
     34 C7          4.7770    1.6680    1.4800 CT        1 PIP      0.304476
     35 C8          3.6300    1.9680    0.5160 CT        1 PIP      0.283612
     36 C9          2.6650    0.8080    0.3690 CT        1 PIP     -0.051837
     37 O16         2.2610    0.4230    1.6860 OS        1 PIP     -0.397879
     38 C10         1.0990   -0.2150    1.9160 C         1 PIP      0.817919
     39 O17         0.8680   -0.5670    3.0500 O         1 PIP     -0.648518
     40 C11         0.1530   -0.4290    0.7600 CT        1 PIP     -0.079694
     41 C12        -1.1170   -1.1520    1.1860 CT        1 PIP      0.124226
     42 C13        -2.1250   -1.2720    0.0460 CT        1 PIP     -0.049377
     43 C14        -3.4340   -1.9020    0.5140 CT        1 PIP      0.082301
     44 C15        -4.5250   -1.9310   -0.5540 CT        1 PIP     -0.011828
     45 C16        -5.8810   -2.3040    0.0380 CT        1 PIP      0.007927
     46 C17        -7.0320   -2.3270   -0.9640 CT        1 PIP      0.050050
     47 C18        -8.3570   -2.6850   -0.2920 CT        1 PIP     -0.005258
     48 C19        -9.5900   -2.4140   -1.1500 CT        1 PIP      0.009127
     49 C20       -10.8860   -2.8330   -0.4590 CT        1 PIP      0.051921
     50 C21       -12.1400   -2.3840   -1.2050 CT        1 PIP     -0.040809
     51 C22       -13.4310   -2.6810   -0.4440 CT        1 PIP     -0.002326
     52 C23       -14.6750   -2.1390   -1.1420 CT        1 PIP      0.054522
     53 C24       -15.9660   -2.3960   -0.3680 CT        1 PIP     -0.078896
     54 C25       -17.2010   -1.8320   -1.0650 CT        1 PIP     -0.022382
     55 C26       -18.4940   -2.0440   -0.2800 CT        1 PIP      0.111720
     56 C27       -19.7270   -1.5520   -1.0350 CT        1 PIP     -0.208106
     57 O18         2.9480    3.0940    1.0830 OS        1 PIP     -0.597274
     58 C28         2.3010    4.0080    0.3280 C         1 PIP      0.931295
     59 O19         1.7110    4.8880    0.9110 O         1 PIP     -0.666500
     60 C29         2.4130    3.9170   -1.1780 CT        1 PIP     -0.251655
     61 C30         1.4460    4.8410   -1.9140 CT        1 PIP     -0.118989
     62 C31         0.0580    4.2220   -2.1250 CT        1 PIP     -0.021754
     63 C32        -0.7200    3.9510   -0.8670 CM        1 PIP     -0.220142
     64 C33        -1.3440    2.8040   -0.5900 CM        1 PIP     -0.160880
     65 C34        -2.2820    2.6100    0.5770 CT        1 PIP     -0.101974
     66 C35        -3.7100    2.6280    0.0880 CM        1 PIP     -0.174403
     67 C36        -4.6090    1.6540    0.2390 CM        1 PIP     -0.206673
     68 C37        -6.0060    1.7190   -0.3230 CT        1 PIP     -0.086094
     69 C38        -7.0940    1.5890    0.7140 CM        1 PIP     -0.184559
     70 C39        -8.1690    0.8130    0.5710 CM        1 PIP     -0.193307
     71 C40        -9.3310    0.7450    1.5290 CT        1 PIP     -0.002387
     72 C41       -10.5690    1.3430    0.9080 CM        1 PIP     -0.191717
     73 C42       -11.6840    0.6680    0.6270 CM        1 PIP     -0.275099
     74 C43       -12.9150    1.2500   -0.0090 CT        1 PIP      0.007086
     75 C44       -14.1790    0.9810    0.8130 CT        1 PIP     -0.039958
     76 C45       -15.4450    1.5220    0.1540 CT        1 PIP     -0.038363
     77 C46       -16.7100    1.2020    0.9480 CT        1 PIP      0.178181
     78 C47       -17.9770    1.7240    0.2760 CT        1 PIP     -0.287785
     79 H10         4.3850    1.6060    2.4980 H1        1 PIP      0.017234
     80 H11         5.5150    2.4740    1.4230 H1        1 PIP      0.017234
     81 H12         4.0500    2.2070   -0.4640 H1        1 PIP      0.034770
     82 H13         3.1610   -0.0340   -0.1230 H1        1 PIP      0.086973
     83 H14         1.8050    1.1230   -0.2270 H1        1 PIP      0.086973
     84 H15         0.6760   -0.9760   -0.0350 HC        1 PIP      0.019171
     85 H16        -0.0970    0.5530    0.3370 HC        1 PIP      0.019171
     86 H17        -1.5750   -0.6030    2.0180 HC        1 PIP     -0.030382
     87 H18        -0.8640   -2.1460    1.5730 HC        1 PIP     -0.030382
     88 H19        -1.6950   -1.8580   -0.7780 HC        1 PIP     -0.001987
     89 H20        -2.3360   -0.2710   -0.3600 HC        1 PIP     -0.001987
     90 H21        -3.8020   -1.3370    1.3830 HC        1 PIP     -0.024044
     91 H22        -3.2450   -2.9220    0.8760 HC        1 PIP     -0.024044
     92 H23        -4.2520   -2.6370   -1.3510 HC        1 PIP     -0.004207
     93 H24        -4.5990   -0.9410   -1.0270 HC        1 PIP     -0.004207
     94 H25        -6.1260   -1.5760    0.8280 HC        1 PIP     -0.017123
     95 H26        -5.8080   -3.2830    0.5340 HC        1 PIP     -0.017123
     96 H27        -6.8180   -3.0420   -1.7700 HC        1 PIP     -0.018730
     97 H28        -7.1140   -1.3400   -1.4410 HC        1 PIP     -0.018730
     98 H29        -8.4490   -2.1080    0.6400 HC        1 PIP     -0.002864
     99 H30        -8.3390   -3.7430    0.0070 HC        1 PIP     -0.002864
    100 H31        -9.4980   -2.9280   -2.1170 HC        1 PIP     -0.014371
    101 H32        -9.6390   -1.3380   -1.3740 HC        1 PIP     -0.014371
    102 H33       -10.8990   -2.4060    0.5550 HC        1 PIP     -0.019209
    103 H34       -10.9010   -3.9240   -0.3300 HC        1 PIP     -0.019209
    104 H35       -12.1750   -2.8640   -2.1940 HC        1 PIP      0.009818
    105 H36       -12.0770   -1.3020   -1.3910 HC        1 PIP      0.009818
    106 H37       -13.3620   -2.2420    0.5630 HC        1 PIP     -0.004374
    107 H38       -13.5320   -3.7660   -0.2990 HC        1 PIP     -0.004374
    108 H39       -14.7570   -2.5840   -2.1440 HC        1 PIP     -0.012793
    109 H40       -14.5580   -1.0560   -1.2960 HC        1 PIP     -0.012793
    110 H41       -15.8780   -1.9560    0.6370 HC        1 PIP      0.015371
    111 H42       -16.0940   -3.4780   -0.2180 HC        1 PIP      0.015371
    112 H43       -17.3000   -2.2960   -2.0570 HC        1 PIP      0.014876
    113 H44       -17.0580   -0.7550   -1.2420 HC        1 PIP      0.014876
    114 H45       -18.4200   -1.5260    0.6860 HC        1 PIP     -0.014403
    115 H46       -18.6050   -3.1120   -0.0500 HC        1 PIP     -0.014403
    116 H47       -20.6420   -1.7000   -0.4530 HC        1 PIP      0.041785
    117 H48       -19.8400   -2.0870   -1.9840 HC        1 PIP      0.041785
    118 H49       -19.6430   -0.4840   -1.2640 HC        1 PIP      0.041785
    119 H50         3.4540    4.1690   -1.4210 HC        1 PIP      0.123094
    120 H51         2.2670    2.8830   -1.5090 HC        1 PIP      0.123094
    121 H52         1.3590    5.7870   -1.3710 HC        1 PIP      0.059059
    122 H53         1.8710    5.0700   -2.8960 HC        1 PIP      0.059059
    123 H54        -0.5250    4.9150   -2.7470 HC        1 PIP      0.026713
    124 H55         0.1580    3.2910   -2.6990 HC        1 PIP      0.026713
    125 H56        -0.8180    4.7870   -0.1720 HA        1 PIP      0.176998
    126 H57        -1.2670    1.9700   -1.2920 HA        1 PIP      0.130969
    127 H58        -2.0850    1.6630    1.0970 HC        1 PIP      0.081770
    128 H59        -2.1280    3.4230    1.2990 HC        1 PIP      0.081770
    129 H60        -3.9960    3.5240   -0.4660 HA        1 PIP      0.134940
    130 H61        -4.3400    0.7520    0.7930 HA        1 PIP      0.192044
    131 H62        -6.1460    0.9280   -1.0740 HC        1 PIP      0.073054
    132 H63        -6.1190    2.6780   -0.8470 HC        1 PIP      0.073054
    133 H64        -6.9930    2.2080    1.6080 HA        1 PIP      0.147963
    134 H65        -8.2700    0.2140   -0.3370 HA        1 PIP      0.162197
    135 H66        -9.5380   -0.2990    1.8020 HC        1 PIP      0.050785
    136 H67        -9.0720    1.2860    2.4490 HC        1 PIP      0.050785
    137 H68       -10.5080    2.4030    0.6520 HA        1 PIP      0.147986
    138 H69       -11.7370   -0.3920    0.8880 HA        1 PIP      0.186145
    139 H70       -13.0550    0.8100   -1.0080 HC        1 PIP      0.036091
    140 H71       -12.7830    2.3300   -0.1550 HC        1 PIP      0.036091
    141 H72       -14.0660    1.4230    1.8120 HC        1 PIP      0.016548
    142 H73       -14.2860   -0.1040    0.9630 HC        1 PIP      0.016548
    143 H74       -15.5370    1.0990   -0.8580 HC        1 PIP      0.008083
    144 H75       -15.3570    2.6100    0.0260 HC        1 PIP      0.008083
    145 H76       -16.6210    1.6280    1.9560 HC        1 PIP     -0.028147
    146 H77       -16.7820    0.1140    1.0780 HC        1 PIP     -0.028147
    147 H78       -18.8740    1.4530    0.8420 HC        1 PIP      0.063456
    148 H79       -18.0790    1.3110   -0.7340 HC        1 PIP      0.063456
    149 H80       -17.9500    2.8160    0.1870 HC        1 PIP      0.063456
@<TRIPOS>BOND
     1    1    2 1   
     2    1    3 1   
     3    1    4 1   
     4    1   33 1   
     5    2   13 1   
     6    5    6 1   
     7    5    7 1   
     8    5    8 1   
     9    5    9 1   
    10    9   10 1   
    11   10   11 1   
    12   10   18 1   
    13   10   24 1   
    14   11   12 1   
    15   11   13 1   
    16   11   25 1   
    17   12   26 1   
    18   13   14 1   
    19   13   27 1   
    20   14   15 1   
    21   14   16 1   
    22   14   28 1   
    23   15   29 1   
    24   16   17 1   
    25   16   18 1   
    26   16   30 1   
    27   17   31 1   
    28   18   19 1   
    29   18   32 1   
    30   19   20 1   
    31   20   21 1   
    32   20   22 1   
    33   20   23 1   
    34   33   34 1   
    35   34   35 1   
    36   34   79 1   
    37   34   80 1   
    38   35   36 1   
    39   35   57 1   
    40   35   81 1   
    41   36   37 1   
    42   36   82 1   
    43   36   83 1   
    44   37   38 1   
    45   38   39 2   
    46   38   40 1   
    47   40   41 1   
    48   40   84 1   
    49   40   85 1   
    50   41   42 1   
    51   41   86 1   
    52   41   87 1   
    53   42   43 1   
    54   42   88 1   
    55   42   89 1   
    56   43   44 1   
    57   43   90 1   
    58   43   91 1   
    59   44   45 1   
    60   44   92 1   
    61   44   93 1   
    62   45   46 1   
    63   45   94 1   
    64   45   95 1   
    65   46   47 1   
    66   46   96 1   
    67   46   97 1   
    68   47   48 1   
    69   47   98 1   
    70   47   99 1   
    71   48   49 1   
    72   48  100 1   
    73   48  101 1   
    74   49   50 1   
    75   49  102 1   
    76   49  103 1   
    77   50   51 1   
    78   50  104 1   
    79   50  105 1   
    80   51   52 1   
    81   51  106 1   
    82   51  107 1   
    83   52   53 1   
    84   52  108 1   
    85   52  109 1   
    86   53   54 1   
    87   53  110 1   
    88   53  111 1   
    89   54   55 1   
    90   54  112 1   
    91   54  113 1   
    92   55   56 1   
    93   55  114 1   
    94   55  115 1   
    95   56  116 1   
    96   56  117 1   
    97   56  118 1   
    98   57   58 1   
    99   58   59 2   
   100   58   60 1   
   101   60   61 1   
   102   60  119 1   
   103   60  120 1   
   104   61   62 1   
   105   61  121 1   
   106   61  122 1   
   107   62   63 1   
   108   62  123 1   
   109   62  124 1   
   110   63   64 2   
   111   63  125 1   
   112   64   65 1   
   113   64  126 1   
   114   65   66 1   
   115   65  127 1   
   116   65  128 1   
   117   66   67 2   
   118   66  129 1   
   119   67   68 1   
   120   67  130 1   
   121   68   69 1   
   122   68  131 1   
   123   68  132 1   
   124   69   70 2   
   125   69  133 1   
   126   70   71 1   
   127   70  134 1   
   128   71   72 1   
   129   71  135 1   
   130   71  136 1   
   131   72   73 2   
   132   72  137 1   
   133   73   74 1   
   134   73  138 1   
   135   74   75 1   
   136   74  139 1   
   137   74  140 1   
   138   75   76 1   
   139   75  141 1   
   140   75  142 1   
   141   76   77 1   
   142   76  143 1   
   143   76  144 1   
   144   77   78 1   
   145   77  145 1   
   146   77  146 1   
   147   78  147 1   
   148   78  148 1   
   149   78  149 1   
@<TRIPOS>SUBSTRUCTURE
     1 PIP         1 TEMP              0 ****  ****    0 ROOT
