@<TRIPOS>MOLECULE
POC
  134   133     1     0     0
SMALL
resp


@<TRIPOS>ATOM
      1 P1          8.3470    3.1260   -0.9210 P         1 POC      1.258243
      2 O1          7.8930    4.5410   -0.7900 O2        1 POC     -0.753833
      3 O2          8.7380    2.5320    0.6910 OS        1 POC     -0.581341
      4 O3          9.4770    2.6220   -1.8000 O2        1 POC     -0.753833
      5 C1         10.1100    2.2650    0.9280 CT        1 POC      0.336123
      6 C2         10.1770    0.7810    1.3540 CT        1 POC     -0.179910
      7 N1         11.5960    0.1160    1.3290 N3        1 POC      0.123040
      8 C3         12.5440    0.8420    2.2720 CT        1 POC     -0.355490
      9 O4          6.9850    2.1830   -1.1560 OS        1 POC     -0.423147
     10 C4         11.4540   -1.3340    1.7740 CT        1 POC     -0.355490
     11 C5         12.1600    0.1410   -0.0920 CT        1 POC     -0.355490
     12 C6          6.2410   -1.4940   -1.2350 CT        1 POC     -0.051235
     13 C7          5.8780   -0.0080   -1.2720 CT        1 POC      0.407570
     14 C8          7.2010    0.7870   -1.3660 CT        1 POC     -0.027060
     15 C9        -14.0740   -5.1850    0.1960 CT        1 POC     -0.245760
     16 C10       -12.7420   -4.4020    0.2250 CT        1 POC      0.134306
     17 C11       -11.4880   -5.3030    0.1140 CT        1 POC     -0.023946
     18 C12       -10.1580   -4.5150    0.1490 CT        1 POC     -0.042764
     19 C13        -8.8920   -5.3980    0.0170 CT        1 POC      0.011358
     20 C14        -7.5790   -4.5820    0.0660 CT        1 POC     -0.002819
     21 C15        -6.2910   -5.4220   -0.1150 CT        1 POC     -0.053960
     22 C16        -5.0060   -4.5620   -0.0490 CT        1 POC      0.024134
     23 C17        -3.6900   -5.3350   -0.3090 CT        1 POC     -0.074236
     24 C18        -2.4410   -4.4240   -0.2230 CT        1 POC      0.022662
     25 C19        -1.1050   -5.1240   -0.5670 CT        1 POC      0.007690
     26 C20         0.1120   -4.1730   -0.4620 CT        1 POC     -0.112551
     27 C21         1.4570   -4.8180   -0.8720 CT        1 POC     -0.033497
     28 C22         2.6560   -3.8480   -0.7430 CT        1 POC      0.169976
     29 C23         3.9900   -4.5030   -1.1760 CT        1 POC     -0.474571
     30 C24         5.2570   -3.6640   -1.0230 C         1 POC      0.929744
     31 O5          5.0390   -2.3310   -1.2720 OS        1 POC     -0.456363
     32 O6          6.3640   -4.1320   -0.7650 O         1 POC     -0.645529
     33 O7          5.1870    0.3420   -0.0290 OS        1 POC     -0.494288
     34 C25         3.9880    1.0270   -0.1430 C         1 POC      0.719430
     35 C26         3.4890    1.4800    1.2240 CT        1 POC     -0.190082
     36 C27         2.1550    0.8060    1.6680 CT        1 POC      0.020215
     37 C28         0.9030    1.2230    0.8640 CT        1 POC     -0.063513
     38 C29        -0.4100    0.6110    1.4100 CT        1 POC      0.062504
     39 C30        -1.6580    1.0610    0.6120 CT        1 POC     -0.122226
     40 C31        -2.9950    0.4970    1.1480 CT        1 POC      0.062905
     41 C32        -4.2240    1.0240    0.3540 CT        1 POC      0.037710
     42 C33        -5.5530    0.5080    0.8680 CM        1 POC     -0.168933
     43 O8          3.4050    1.2140   -1.2030 O         1 POC     -0.568538
     44 C34        -6.6240    1.2230    1.2760 CM        1 POC     -0.337379
     45 C35        -6.7490    2.7290    1.3870 CT        1 POC      0.194389
     46 C36        -7.9910    3.3040    0.6520 CT        1 POC     -0.083300
     47 C37        -8.0780    4.8460    0.7450 CT        1 POC     -0.051753
     48 C38        -9.2380    5.4670   -0.0700 CT        1 POC      0.084585
     49 C39        -9.2830    7.0120    0.0170 CT        1 POC     -0.057760
     50 C40       -10.3970    7.6600   -0.8390 CT        1 POC     -0.037922
     51 C41       -10.4270    9.2050   -0.7470 CT        1 POC      0.146521
     52 C42       -11.5260    9.8550   -1.6170 CT        1 POC     -0.241169
     53 H1         10.6690    2.4270   -0.0050 H1        1 POC      0.019887
     54 H2         10.5000    2.9290    1.7210 H1        1 POC      0.019887
     55 H3          9.7910    0.6310    2.3690 HP        1 POC      0.135018
     56 H4          9.5790    0.1870    0.6580 HP        1 POC      0.135018
     57 H5         13.5050    0.3190    2.2800 HP        1 POC      0.177282
     58 H6         12.6770    1.8670    1.9200 HP        1 POC      0.177282
     59 H7         12.1060    0.8450    3.2740 HP        1 POC      0.177282
     60 H8         12.4370   -1.8150    1.7540 HP        1 POC      0.177282
     61 H9         10.7720   -1.8460    1.0900 HP        1 POC      0.177282
     62 H10        11.0450   -1.3550    2.7880 HP        1 POC      0.177282
     63 H11        12.3160    1.1740   -0.4030 HP        1 POC      0.177282
     64 H12        13.1050   -0.4110   -0.0990 HP        1 POC      0.177282
     65 H13        11.4370   -0.3310   -0.7610 HP        1 POC      0.177282
     66 H14         6.8060   -1.7320   -0.3260 H1        1 POC      0.088621
     67 H15         6.8600   -1.7480   -2.1060 H1        1 POC      0.088621
     68 H16         5.2210    0.2300   -2.1150 H1        1 POC      0.070278
     69 H17         7.6470    0.6150   -2.3590 H1        1 POC      0.060519
     70 H18         7.8980    0.3940   -0.6080 H1        1 POC      0.060519
     71 H19       -14.9360   -4.5060    0.2760 HC        1 POC      0.055312
     72 H20       -14.1830   -5.7540   -0.7400 HC        1 POC      0.055312
     73 H21       -14.1340   -5.9020    1.0300 HC        1 POC      0.055312
     74 H22       -12.6850   -3.8180    1.1590 HC        1 POC     -0.017557
     75 H23       -12.7340   -3.6690   -0.5990 HC        1 POC     -0.017557
     76 H24       -11.5440   -5.8870   -0.8210 HC        1 POC      0.008601
     77 H25       -11.4980   -6.0380    0.9380 HC        1 POC      0.008601
     78 H26       -10.1020   -3.9480    1.0930 HC        1 POC      0.007344
     79 H27       -10.1590   -3.7660   -0.6610 HC        1 POC      0.007344
     80 H28        -8.9390   -5.9630   -0.9300 HC        1 POC      0.000680
     81 H29        -8.8850   -6.1470    0.8270 HC        1 POC      0.000680
     82 H30        -7.5260   -4.0510    1.0320 HC        1 POC      0.009593
     83 H31        -7.6090   -3.8020   -0.7130 HC        1 POC      0.009593
     84 H32        -6.3310   -5.9510   -1.0820 HC        1 POC      0.013640
     85 H33        -6.2490   -6.2000    0.6660 HC        1 POC      0.013640
     86 H34        -4.9490   -4.0860    0.9450 HC        1 POC      0.008082
     87 H35        -5.0860   -3.7400   -0.7800 HC        1 POC      0.008082
     88 H36        -3.7340   -5.8070   -1.3040 HC        1 POC      0.018228
     89 H37        -3.5950   -6.1550    0.4230 HC        1 POC      0.018228
     90 H38        -2.3750   -4.0060    0.7960 HC        1 POC      0.005872
     91 H39        -2.5780   -3.5640   -0.9000 HC        1 POC      0.005872
     92 H40        -1.1610   -5.5360   -1.5890 HC        1 POC      0.002698
     93 H41        -0.9560   -5.9830    0.1090 HC        1 POC      0.002698
     94 H42         0.1910   -3.8050    0.5750 HC        1 POC      0.035819
     95 H43        -0.0670   -3.2860   -1.0920 HC        1 POC      0.035819
     96 H44         1.3870   -5.1720   -1.9140 HC        1 POC      0.024187
     97 H45         1.6400   -5.7110   -0.2510 HC        1 POC      0.024187
     98 H46         2.7400   -3.5080    0.3010 HC        1 POC     -0.000421
     99 H47         2.4750   -2.9510   -1.3520 HC        1 POC     -0.000421
    100 H48         3.9390   -4.7730   -2.2440 HC        1 POC      0.120520
    101 H49         4.1710   -5.4360   -0.6260 HC        1 POC      0.120520
    102 H50         3.3430    2.5690    1.1540 HC        1 POC      0.080629
    103 H51         4.2670    1.2980    1.9750 HC        1 POC      0.080629
    104 H52         2.0040    1.0590    2.7310 HC        1 POC      0.006281
    105 H53         2.2760   -0.2890    1.6240 HC        1 POC      0.006281
    106 H54         1.0330    0.9280   -0.1860 HC        1 POC      0.040332
    107 H55         0.8220    2.3220    0.8630 HC        1 POC      0.040332
    108 H56        -0.5340    0.8790    2.4730 HC        1 POC     -0.014960
    109 H57        -0.3410   -0.4900    1.3690 HC        1 POC     -0.014960
    110 H58        -1.5350    0.7520   -0.4390 HC        1 POC      0.024603
    111 H59        -1.7060    2.1630    0.6030 HC        1 POC      0.024603
    112 H60        -3.1110    0.7550    2.2130 HC        1 POC     -0.008791
    113 H61        -2.9770   -0.6040    1.0910 HC        1 POC     -0.008791
    114 H62        -4.1110    0.7100   -0.6990 HC        1 POC      0.030798
    115 H63        -4.2030    2.1220    0.3540 HC        1 POC      0.030798
    116 H64        -5.6610   -0.5810    0.8440 HA        1 POC      0.083075
    117 H65        -7.5100    0.6620    1.5910 HA        1 POC      0.144897
    118 H66        -6.8030    3.0120    2.4530 HC        1 POC      0.000986
    119 H67        -5.8520    3.2170    0.9820 HC        1 POC      0.000986
    120 H68        -7.9460    3.0050   -0.4080 HC        1 POC      0.026510
    121 H69        -8.9080    2.8520    1.0650 HC        1 POC      0.026510
    122 H70        -8.1750    5.1430    1.8030 HC        1 POC      0.007458
    123 H71        -7.1260    5.2750    0.3880 HC        1 POC      0.007458
    124 H72        -9.1360    5.1680   -1.1270 HC        1 POC     -0.014164
    125 H73       -10.1980    5.0510    0.2790 HC        1 POC     -0.014164
    126 H74        -9.4150    7.3120    1.0710 HC        1 POC      0.011848
    127 H75        -8.3070    7.4160   -0.3000 HC        1 POC      0.011848
    128 H76       -10.2620    7.3650   -1.8940 HC        1 POC      0.010840
    129 H77       -11.3770    7.2590   -0.5290 HC        1 POC      0.010840
    130 H78       -10.5740    9.5010    0.3050 HC        1 POC     -0.021159
    131 H79        -9.4430    9.6030   -1.0470 HC        1 POC     -0.021159
    132 H80       -11.5130   10.9520   -1.5230 HC        1 POC      0.053925
    133 H81       -11.3890    9.6090   -2.6820 HC        1 POC      0.053925
    134 H82       -12.5270    9.5060   -1.3210 HC        1 POC      0.053925
@<TRIPOS>BOND
     1    1    2 1   
     2    1    3 1   
     3    1    4 1   
     4    1    9 1   
     5    3    5 1   
     6    5    6 1   
     7    5   53 1   
     8    5   54 1   
     9    6    7 1   
    10    6   55 1   
    11    6   56 1   
    12    7    8 1   
    13    7   10 1   
    14    7   11 1   
    15    8   57 1   
    16    8   58 1   
    17    8   59 1   
    18    9   14 1   
    19   10   60 1   
    20   10   61 1   
    21   10   62 1   
    22   11   63 1   
    23   11   64 1   
    24   11   65 1   
    25   12   13 1   
    26   12   31 1   
    27   12   66 1   
    28   12   67 1   
    29   13   14 1   
    30   13   33 1   
    31   13   68 1   
    32   14   69 1   
    33   14   70 1   
    34   15   16 1   
    35   15   71 1   
    36   15   72 1   
    37   15   73 1   
    38   16   17 1   
    39   16   74 1   
    40   16   75 1   
    41   17   18 1   
    42   17   76 1   
    43   17   77 1   
    44   18   19 1   
    45   18   78 1   
    46   18   79 1   
    47   19   20 1   
    48   19   80 1   
    49   19   81 1   
    50   20   21 1   
    51   20   82 1   
    52   20   83 1   
    53   21   22 1   
    54   21   84 1   
    55   21   85 1   
    56   22   23 1   
    57   22   86 1   
    58   22   87 1   
    59   23   24 1   
    60   23   88 1   
    61   23   89 1   
    62   24   25 1   
    63   24   90 1   
    64   24   91 1   
    65   25   26 1   
    66   25   92 1   
    67   25   93 1   
    68   26   27 1   
    69   26   94 1   
    70   26   95 1   
    71   27   28 1   
    72   27   96 1   
    73   27   97 1   
    74   28   29 1   
    75   28   98 1   
    76   28   99 1   
    77   29   30 1   
    78   29  100 1   
    79   29  101 1   
    80   30   31 1   
    81   30   32 2   
    82   33   34 1   
    83   34   35 1   
    84   34   43 2   
    85   35   36 1   
    86   35  102 1   
    87   35  103 1   
    88   36   37 1   
    89   36  104 1   
    90   36  105 1   
    91   37   38 1   
    92   37  106 1   
    93   37  107 1   
    94   38   39 1   
    95   38  108 1   
    96   38  109 1   
    97   39   40 1   
    98   39  110 1   
    99   39  111 1   
   100   40   41 1   
   101   40  112 1   
   102   40  113 1   
   103   41   42 1   
   104   41  114 1   
   105   41  115 1   
   106   42   44 2   
   107   42  116 1   
   108   44   45 1   
   109   44  117 1   
   110   45   46 1   
   111   45  118 1   
   112   45  119 1   
   113   46   47 1   
   114   46  120 1   
   115   46  121 1   
   116   47   48 1   
   117   47  122 1   
   118   47  123 1   
   119   48   49 1   
   120   48  124 1   
   121   48  125 1   
   122   49   50 1   
   123   49  126 1   
   124   49  127 1   
   125   50   51 1   
   126   50  128 1   
   127   50  129 1   
   128   51   52 1   
   129   51  130 1   
   130   51  131 1   
   131   52  132 1   
   132   52  133 1   
   133   52  134 1   
@<TRIPOS>SUBSTRUCTURE
     1 POC         1 TEMP              0 ****  ****    0 ROOT
