@<TRIPOS>MOLECULE
POS
  127   126     1     0     0
SMALL
resp


@<TRIPOS>ATOM
      1 P1          7.9960    2.6440   -1.2810 P         1 POS      1.279919
      2 O1          7.3850    4.0100   -1.2280 O2        1 POS     -0.764902
      3 O2          8.8580    2.4410    0.2070 OS        1 POS     -0.585018
      4 O3          8.8470    2.0510   -2.3840 O2        1 POS     -0.764904
      5 C1          9.6390    1.2510    0.2860 CT        1 POS      0.282950
      6 C2         10.5630    1.1510    1.5380 CT        1 POS      0.156346
      7 N1         10.9180   -0.3040    1.6970 NT        1 POS     -1.093870
      8 O4         12.9260    1.3310    0.8210 OH        1 POS     -0.649912
      9 O5          6.7040    1.5600   -1.0180 OS        1 POS     -0.454506
     10 O6         11.9240    3.1600    1.7070 O         1 POS     -0.597841
     11 C3         11.8450    1.9890    1.3780 C         1 POS      0.827446
     12 C4          5.9870   -2.0930   -1.0400 CT        1 POS     -0.149129
     13 C5          5.6010   -0.6190   -1.1030 CT        1 POS      0.461139
     14 C6          6.9140    0.1740   -1.2550 CT        1 POS     -0.000337
     15 C7        -14.0570   -4.8820    0.3500 CT        1 POS     -0.248945
     16 C8        -12.7310   -4.1360    0.6200 CT        1 POS      0.120825
     17 C9        -11.4890   -4.9290    0.1620 CT        1 POS     -0.017540
     18 C10       -10.1520   -4.2220    0.4600 CT        1 POS     -0.049264
     19 C11        -8.9290   -4.9970   -0.0690 CT        1 POS      0.017259
     20 C12        -7.5870   -4.3140    0.2510 CT        1 POS      0.000407
     21 C13        -6.3690   -5.0960   -0.2700 CT        1 POS     -0.028614
     22 C14        -5.0300   -4.4320    0.0910 CT        1 POS      0.005625
     23 C15        -3.8100   -5.2070   -0.4320 CT        1 POS     -0.045832
     24 C16        -2.4740   -4.5540   -0.0410 CT        1 POS      0.011261
     25 C17        -1.2500   -5.3070   -0.5860 CT        1 POS     -0.010706
     26 C18         0.0770   -4.6430   -0.1870 CT        1 POS     -0.113059
     27 C19         1.3100   -5.3280   -0.7990 CT        1 POS     -0.007684
     28 C20         2.6150   -4.5860   -0.4600 CT        1 POS      0.153604
     29 C21         3.8320   -5.1500   -1.2200 CT        1 POS     -0.428437
     30 C22         5.1000   -4.3080   -1.1610 C         1 POS      0.915375
     31 O7          4.8060   -2.9660   -1.1020 OS        1 POS     -0.437519
     32 O8          6.2360   -4.7750   -1.1630 O         1 POS     -0.633096
     33 O9          5.0110   -0.2580    0.1960 OS        1 POS     -0.493177
     34 C23         4.2190    0.8840    0.2090 C         1 POS      0.783991
     35 C24         3.9990    1.3500    1.6480 CT        1 POS     -0.328030
     36 C25         2.6600    0.7760    2.1840 CT        1 POS      0.081620
     37 C26         1.4420    1.2670    1.3770 CT        1 POS     -0.038815
     38 C27         0.1130    0.6320    1.8220 CT        1 POS      0.037466
     39 C28        -1.0830    1.1790    1.0200 CT        1 POS     -0.011731
     40 C29        -2.4570    0.6070    1.4260 CT        1 POS     -0.026641
     41 C30        -3.5860    1.2640    0.6020 CT        1 POS      0.218764
     42 C31        -4.9580    0.6530    0.7760 CM        1 POS     -0.222690
     43 O10         3.6990    1.3850   -0.7770 O         1 POS     -0.593289
     44 C32        -6.0970    1.3680    0.8280 CM        1 POS     -0.349319
     45 C33        -6.1370    2.8760    0.7040 CT        1 POS      0.230585
     46 C34        -7.3700    3.4590   -0.0210 CT        1 POS     -0.072514
     47 C35        -7.4330    4.9960    0.1580 CT        1 POS     -0.050649
     48 C36        -8.6610    5.6740   -0.4840 CT        1 POS      0.062834
     49 C37        -8.7490    7.1970   -0.2300 CT        1 POS     -0.051078
     50 C38       -10.0100    7.8160   -0.8710 CT        1 POS     -0.040670
     51 C39       -10.1310    9.3480   -0.7280 CT        1 POS      0.121247
     52 C40       -11.4290    9.9070   -1.3600 CT        1 POS     -0.238098
     53 H1         10.2240    1.1000   -0.6310 H1        1 POS      0.018468
     54 H2          8.9660    0.3940    0.4070 H1        1 POS      0.018468
     55 H3         10.0190    1.5600    2.3990 H1        1 POS      0.023599
     56 H4         10.1080   -0.8520    1.3990 H         1 POS      0.400844
     57 H5         11.0580   -0.5450    2.6820 H         1 POS      0.400844
     58 H6         12.6430    0.3930    0.6880 HO        1 POS      0.420813
     59 H7          6.6480   -2.3390   -1.8800 H1        1 POS      0.113112
     60 H8          6.5210   -2.3100   -0.1040 H1        1 POS      0.113112
     61 H9          4.8780   -0.4040   -1.9020 H1        1 POS      0.049835
     62 H10         7.5960   -0.2460   -0.5040 H1        1 POS      0.037899
     63 H11         7.3580   -0.0200   -2.2430 H1        1 POS      0.037899
     64 H12       -14.9280   -4.2150    0.4430 HC        1 POS      0.055978
     65 H13       -14.1970   -5.7150    1.0570 HC        1 POS      0.055978
     66 H14       -14.0680   -5.3050   -0.6670 HC        1 POS      0.055978
     67 H15       -12.6450   -3.9110    1.6970 HC        1 POS     -0.013828
     68 H16       -12.7390   -3.1620    0.1020 HC        1 POS     -0.013828
     69 H17       -11.5630   -5.1100   -0.9240 HC        1 POS      0.008636
     70 H18       -11.4850   -5.9240    0.6390 HC        1 POS      0.008636
     71 H19       -10.0440   -4.0760    1.5490 HC        1 POS      0.008239
     72 H20       -10.1590   -3.2120    0.0140 HC        1 POS      0.008239
     73 H21        -9.0210   -5.1230   -1.1620 HC        1 POS     -0.002584
     74 H22        -8.9280   -6.0150    0.3580 HC        1 POS     -0.002584
     75 H23        -7.4940   -4.1850    1.3430 HC        1 POS      0.006557
     76 H24        -7.5790   -3.2990   -0.1800 HC        1 POS      0.006557
     77 H25        -6.4410   -5.2020   -1.3660 HC        1 POS      0.006607
     78 H26        -6.3870   -6.1210    0.1400 HC        1 POS      0.006607
     79 H27        -4.9560   -4.3320    1.1870 HC        1 POS      0.006280
     80 H28        -5.0100   -3.4060   -0.3140 HC        1 POS      0.006280
     81 H29        -3.8710   -5.2850   -1.5310 HC        1 POS      0.011802
     82 H30        -3.8390   -6.2410   -0.0470 HC        1 POS      0.011802
     83 H31        -2.4070   -4.4890    1.0580 HC        1 POS      0.010090
     84 H32        -2.4540   -3.5160   -0.4120 HC        1 POS      0.010090
     85 H33        -1.3140   -5.3560   -1.6870 HC        1 POS      0.006031
     86 H34        -1.2670   -6.3510   -0.2280 HC        1 POS      0.006031
     87 H35         0.1690   -4.6320    0.9120 HC        1 POS      0.039664
     88 H36         0.0630   -3.5870   -0.5040 HC        1 POS      0.039664
     89 H37         1.1920   -5.3630   -1.8960 HC        1 POS      0.015190
     90 H38         1.3720   -6.3750   -0.4590 HC        1 POS      0.015190
     91 H39         2.8030   -4.6240    0.6260 HC        1 POS     -0.008935
     92 H40         2.4960   -3.5270   -0.7140 HC        1 POS     -0.008935
     93 H41         4.0980   -6.1600   -0.8840 HC        1 POS      0.103614
     94 H42         3.5790   -5.2370   -2.2870 HC        1 POS      0.103614
     95 H43         3.9840    2.4500    1.6420 HC        1 POS      0.108314
     96 H44         4.8400    1.0270    2.2750 HC        1 POS      0.108314
     97 H45         2.5420    1.0560    3.2430 HC        1 POS     -0.008412
     98 H46         2.7110   -0.3250    2.1500 HC        1 POS     -0.008412
     99 H47         1.6020    1.0540    0.3110 HC        1 POS      0.036112
    100 H48         1.3760    2.3660    1.4560 HC        1 POS      0.036112
    101 H49        -0.0490    0.8040    2.9000 HC        1 POS     -0.019586
    102 H50         0.1730   -0.4620    1.6840 HC        1 POS     -0.019586
    103 H51        -0.9190    0.9780   -0.0520 HC        1 POS     -0.003531
    104 H52        -1.1010    2.2790    1.1170 HC        1 POS     -0.003531
    105 H53        -2.6290    0.7980    2.5000 HC        1 POS     -0.007982
    106 H54        -2.4650   -0.4890    1.2970 HC        1 POS     -0.007982
    107 H55        -3.6110    2.3190    0.8950 HC        1 POS     -0.013288
    108 H56        -3.3050    1.2450   -0.4660 HC        1 POS     -0.013288
    109 H57        -4.9990   -0.4380    0.8410 HA        1 POS      0.103812
    110 H58        -7.0480    0.8610    1.0110 HA        1 POS      0.146437
    111 H59        -5.2550    3.2210    0.1560 HC        1 POS     -0.014651
    112 H60        -6.0680    3.3270    1.7090 HC        1 POS     -0.014651
    113 H61        -8.2970    2.9960    0.3590 HC        1 POS      0.020902
    114 H62        -7.3120    3.2110   -1.0960 HC        1 POS      0.020902
    115 H63        -6.5110    5.4480   -0.2480 HC        1 POS      0.009790
    116 H64        -7.4290    5.2160    1.2390 HC        1 POS      0.009790
    117 H65        -9.5750    5.1950   -0.0940 HC        1 POS     -0.010139
    118 H66        -8.6560    5.4890   -1.5730 HC        1 POS     -0.010139
    119 H67        -7.8450    7.6900   -0.6290 HC        1 POS      0.012105
    120 H68        -8.7490    7.3880    0.8570 HC        1 POS      0.012105
    121 H69       -10.9020    7.3310   -0.4370 HC        1 POS      0.013252
    122 H70       -10.0150    7.5620   -1.9450 HC        1 POS      0.013252
    123 H71        -9.2560    9.8200   -1.2030 HC        1 POS     -0.012837
    124 H72       -10.0920    9.6270    0.3390 HC        1 POS     -0.012837
    125 H73       -11.3630   10.9910   -1.5420 HC        1 POS      0.053751
    126 H74       -12.3020    9.7310   -0.7130 HC        1 POS      0.053751
    127 H75       -11.6350    9.4220   -2.3280 HC        1 POS      0.053751
@<TRIPOS>BOND
     1    1    2 1   
     2    1    3 1   
     3    1    4 1   
     4    1    9 1   
     5    3    5 1   
     6    5    6 1   
     7    5   53 1   
     8    5   54 1   
     9    6    7 1   
    10    6   11 1   
    11    6   55 1   
    12    7   56 1   
    13    7   57 1   
    14    8   11 1   
    15    8   58 1   
    16    9   14 1   
    17   10   11 2   
    18   12   13 1   
    19   12   31 1   
    20   12   59 1   
    21   12   60 1   
    22   13   14 1   
    23   13   33 1   
    24   13   61 1   
    25   14   62 1   
    26   14   63 1   
    27   15   16 1   
    28   15   64 1   
    29   15   65 1   
    30   15   66 1   
    31   16   17 1   
    32   16   67 1   
    33   16   68 1   
    34   17   18 1   
    35   17   69 1   
    36   17   70 1   
    37   18   19 1   
    38   18   71 1   
    39   18   72 1   
    40   19   20 1   
    41   19   73 1   
    42   19   74 1   
    43   20   21 1   
    44   20   75 1   
    45   20   76 1   
    46   21   22 1   
    47   21   77 1   
    48   21   78 1   
    49   22   23 1   
    50   22   79 1   
    51   22   80 1   
    52   23   24 1   
    53   23   81 1   
    54   23   82 1   
    55   24   25 1   
    56   24   83 1   
    57   24   84 1   
    58   25   26 1   
    59   25   85 1   
    60   25   86 1   
    61   26   27 1   
    62   26   87 1   
    63   26   88 1   
    64   27   28 1   
    65   27   89 1   
    66   27   90 1   
    67   28   29 1   
    68   28   91 1   
    69   28   92 1   
    70   29   30 1   
    71   29   93 1   
    72   29   94 1   
    73   30   31 1   
    74   30   32 2   
    75   33   34 1   
    76   34   35 1   
    77   34   43 2   
    78   35   36 1   
    79   35   95 1   
    80   35   96 1   
    81   36   37 1   
    82   36   97 1   
    83   36   98 1   
    84   37   38 1   
    85   37   99 1   
    86   37  100 1   
    87   38   39 1   
    88   38  101 1   
    89   38  102 1   
    90   39   40 1   
    91   39  103 1   
    92   39  104 1   
    93   40   41 1   
    94   40  105 1   
    95   40  106 1   
    96   41   42 1   
    97   41  107 1   
    98   41  108 1   
    99   42   44 2   
   100   42  109 1   
   101   44   45 1   
   102   44  110 1   
   103   45   46 1   
   104   45  111 1   
   105   45  112 1   
   106   46   47 1   
   107   46  113 1   
   108   46  114 1   
   109   47   48 1   
   110   47  115 1   
   111   47  116 1   
   112   48   49 1   
   113   48  117 1   
   114   48  118 1   
   115   49   50 1   
   116   49  119 1   
   117   49  120 1   
   118   50   51 1   
   119   50  121 1   
   120   50  122 1   
   121   51   52 1   
   122   51  123 1   
   123   51  124 1   
   124   52  125 1   
   125   52  126 1   
   126   52  127 1   
@<TRIPOS>SUBSTRUCTURE
     1 POS         1 TEMP              0 ****  ****    0 ROOT
